/*--------------------------------*- C++ -*----------------------------------*\
  =========                 |
  \\      /  F ield         | OpenFOAM: The Open Source CFD Toolbox
   \\    /   O peration     | Website:  https://openfoam.org
    \\  /    A nd           | Version:  7
     \\/     M anipulation  |
\*---------------------------------------------------------------------------*/
FoamFile
{
    version     2.0;
    format      ascii;
    class       dictionary;
    object      blockMeshDict;
}
// * * * * * * * * * * * * * * * * * * * * * * * * * * * * * * * * * * * * * //

convertToMeters 0.001;

    vertices
    (
        ( 0    10   0)    // vertex number 0
        ( 2    10   0)    // vertex number 1
        ( 2    150  0)    // vertex number 2
        ( 0    150  0)    // vertex number 3
        ( 0    10   1)    // vertex number 4
        ( 2    10   1)    // vertex number 5
        ( 2    150  1)    // vertex number 6
        ( 0    150  1)    // vertex number 7

        ( 0    0    0)    // vertex number 8
        ( 2    0    0)    // vertex number 9
        ( 0    0    1)    // vertex number 10
        ( 2    0    1)    // vertex number 11

        ( 233  0    0)    // vertex number 12
        ( 233  10   0)    // vertex number 13
        ( 233  0    1)    // vertex number 14
        ( 233  10   1)    // vertex number 15

        ( 235  0    0)    // vertex number 16
        ( 235  10   0)    // vertex number 17
        ( 235  0    1)    // vertex number 18
        ( 235  10   1)    // vertex number 19

        ( 235  150   0)    // vertex number 20
        ( 233  150   0)    // vertex number 21
        ( 235  150   1)    // vertex number 22
        ( 233  150   1)    // vertex number 23


    );

    blocks
    (
        hex (0 1 2 3 4 5 6 7)    // vertex numbers
        (1 70 1)               // numbers of cells in each direction
        simpleGrading (1 1 1)    // cell expansion ratios

        hex (8 9 1 0 10 11 5 4)    // vertex numbers
        (1 5 1)               // numbers of cells in each direction
        simpleGrading (1 1 1)    // cell expansion ratios

        hex (9 12 13 1 11 14 15 5)    // vertex numbers
        (115 5 1)               // numbers of cells in each direction
        simpleGrading (1 1 1)    // cell expansion ratios

        hex (12 16 17 13 14 18 19 15)    // vertex numbers
        (1 5 1)               // numbers of cells in each direction
        simpleGrading (1 1 1)    // cell expansion ratios

        hex (13 17 20 21 15 19 22 23)    // vertex numbers
        (1 70 1)               // numbers of cells in each direction
        simpleGrading (1 1 1)    // cell expansion ratios
    );

    boundary
    (
        hotBot 
        {
            type patch;
            faces
            (
		(8 9 10 11)
		(12 14 11 9)
		(16 18 14 12)
            );
        }
        pan
        {
            type patch;
            faces
            (
		(1 5 15 13)
            );
        }
        wallsRight
        {
            type patch;
            faces
            (
		(17 19 18 16)
		(20 22 19 17)
		(21 23 22 20)
		(13 15 23 21)
            );
        }
        wallsLeft
        {
            type patch;
            faces
            (
                (1 2 6 5)
                (3 7 6 2)
		(8 10 4 0)
                (0 4 7 3) 
            );
        }
        frontAndBack
        {
            type empty;
            faces
            (
                (4 5 6 7)
                (0 3 2 1)

		(8 0 1 9)
		(10 11 5 4)

		(9 1 13 12)
		(11 14 15 5)

		(12 13 17 16)
		(14 18 19 15)

		(13 21 20 17)
		(15 19 22 23)
            );
        }
	
	// Interfaces
                //(0 1 5 4) interface 
		//(9 1 5 11) interface
		//(13 15 14 12) interface
		//(13 15 19 17) interface
    );

mergePatchPairs
(
);

// ************************************************************************* //
